* SPICE3 file created from full_ckt.ext - technology: scmos
.include TSMC_180nm.txt
.model CMOSP pmos level=49 version=3.3.0
.model CMOSN nmos level=49 version=3.3.0

.param SUPPLY = 1
.param LAMBDA = 0.18u

.param width_P=8*LAMBDA
.param  width_N = 4*LAMBDA
.global gnd vdd

Vdd vdd gnd 'SUPPLY'

V_a a0 gnd 1
V_b a1 gnd 1
V_c a2 gnd 1
V_d a3 gnd 1
V_e b0 gnd pulse(0 1 0 100p 100p 100n 200n)
V_f b1 gnd pulse(0 1 0 100p 100p 100n 200n)
V_g b2 gnd pulse(0 1 0 100p 100p 100n 200n)
V_h b3 gnd pulse(0 1 0 100p 100p 100n 200n)
V_i s0 gnd 1
V_j s1 gnd 1
.option scale=0.09u

M1000 m1_n97_n30# or2_0/a_0_n7# vdd or2_0/not_0/w_n12_n9# CMOSP w=8 l=2
+  ad=40 pd=26 as=10151 ps=6601
M1001 m1_n97_n30# or2_0/a_0_n7# gnd Gnd CMOSN w=4 l=2
+  ad=20 pd=18 as=4602 ps=3924
M1002 or2_0/a_0_16# a_n276_n104# vdd or2_0/w_n13_8# CMOSP w=8 l=2
+  ad=144 pd=52 as=0 ps=0
M1003 or2_0/a_0_n7# a_n281_120# or2_0/a_0_16# or2_0/w_n13_8# CMOSP w=8 l=2
+  ad=40 pd=26 as=0 ps=0
M1004 or2_0/a_0_n7# a_n276_n104# gnd Gnd CMOSN w=4 l=2
+  ad=40 pd=36 as=0 ps=0
M1005 or2_0/a_0_n7# a_n281_120# gnd Gnd CMOSN w=4 l=2
+  ad=0 pd=0 as=0 ps=0
M1006 adder_sub_0/m2_301_n241# adder_sub_0/full_adder_0/or2_0/a_0_n7# vdd adder_sub_0/full_adder_0/or2_0/not_0/w_n12_n9# CMOSP w=8 l=2
+  ad=40 pd=26 as=0 ps=0
M1007 adder_sub_0/m2_301_n241# adder_sub_0/full_adder_0/or2_0/a_0_n7# gnd Gnd CMOSN w=4 l=2
+  ad=20 pd=18 as=0 ps=0
M1008 adder_sub_0/full_adder_0/or2_0/a_0_16# adder_sub_0/full_adder_0/m1_140_n182# vdd adder_sub_0/full_adder_0/or2_0/w_n13_8# CMOSP w=8 l=2
+  ad=144 pd=52 as=0 ps=0
M1009 adder_sub_0/full_adder_0/or2_0/a_0_n7# adder_sub_0/full_adder_0/m1_139_n111# adder_sub_0/full_adder_0/or2_0/a_0_16# adder_sub_0/full_adder_0/or2_0/w_n13_8# CMOSP w=8 l=2
+  ad=40 pd=26 as=0 ps=0
M1010 adder_sub_0/full_adder_0/or2_0/a_0_n7# adder_sub_0/full_adder_0/m1_140_n182# gnd Gnd CMOSN w=4 l=2
+  ad=40 pd=36 as=0 ps=0
M1011 adder_sub_0/full_adder_0/or2_0/a_0_n7# adder_sub_0/full_adder_0/m1_139_n111# gnd Gnd CMOSN w=4 l=2
+  ad=0 pd=0 as=0 ps=0
M1012 vdd adder_sub_0/m1_n35_n310# adder_sub_0/full_adder_0/xor_0/a_n87_n91# adder_sub_0/full_adder_0/xor_0/w_n39_n58# CMOSP w=8 l=2
+  ad=0 pd=0 as=40 ps=26
M1013 adder_sub_0/full_adder_0/a_n22_n3# adder_sub_0/full_adder_0/xor_0/a_n32_n3# adder_sub_0/full_adder_0/xor_0/a_31_n67# Gnd CMOSN w=4 l=2
+  ad=48 pd=40 as=48 ps=40
M1014 adder_sub_0/full_adder_0/xor_0/a_n32_n3# adder_sub_0/a_n219_233# gnd Gnd CMOSN w=4 l=2
+  ad=20 pd=18 as=0 ps=0
M1015 adder_sub_0/full_adder_0/xor_0/a_n1_n13# adder_sub_0/full_adder_0/xor_0/a_n87_n91# adder_sub_0/full_adder_0/a_n22_n3# adder_sub_0/full_adder_0/xor_0/w_n8_n27# CMOSP w=8 l=2
+  ad=80 pd=52 as=80 ps=52
M1016 adder_sub_0/full_adder_0/a_n22_n3# adder_sub_0/a_n219_233# adder_sub_0/full_adder_0/xor_0/a_n1_n67# Gnd CMOSN w=4 l=2
+  ad=0 pd=0 as=44 ps=38
M1017 vdd adder_sub_0/a_n219_233# adder_sub_0/full_adder_0/xor_0/a_n32_n3# adder_sub_0/full_adder_0/xor_0/w_n39_8# CMOSP w=8 l=2
+  ad=0 pd=0 as=40 ps=26
M1018 adder_sub_0/full_adder_0/xor_0/a_31_n67# adder_sub_0/full_adder_0/xor_0/a_n87_n91# gnd Gnd CMOSN w=4 l=2
+  ad=0 pd=0 as=0 ps=0
M1019 adder_sub_0/full_adder_0/xor_0/a_n87_n91# adder_sub_0/m1_n35_n310# gnd Gnd CMOSN w=4 l=2
+  ad=20 pd=18 as=0 ps=0
M1020 vdd adder_sub_0/a_n219_233# adder_sub_0/full_adder_0/xor_0/a_n1_n13# adder_sub_0/full_adder_0/xor_0/w_n8_8# CMOSP w=8 l=2
+  ad=0 pd=0 as=0 ps=0
M1021 vdd adder_sub_0/full_adder_0/xor_0/a_n32_n3# adder_sub_0/full_adder_0/xor_0/a_31_n13# adder_sub_0/full_adder_0/xor_0/w_24_8# CMOSP w=8 l=2
+  ad=0 pd=0 as=80 ps=52
M1022 adder_sub_0/full_adder_0/xor_0/a_31_n13# adder_sub_0/m1_n35_n310# adder_sub_0/full_adder_0/a_n22_n3# adder_sub_0/full_adder_0/xor_0/w_24_n27# CMOSP w=8 l=2
+  ad=0 pd=0 as=0 ps=0
M1023 adder_sub_0/full_adder_0/xor_0/a_n1_n67# adder_sub_0/m1_n35_n310# gnd Gnd CMOSN w=4 l=2
+  ad=0 pd=0 as=0 ps=0
M1024 vdd a_n281_120# adder_sub_0/full_adder_0/xor_1/a_n87_n91# adder_sub_0/full_adder_0/xor_1/w_n39_n58# CMOSP w=8 l=2
+  ad=0 pd=0 as=40 ps=26
M1025 sum0 adder_sub_0/full_adder_0/xor_1/a_n32_n3# adder_sub_0/full_adder_0/xor_1/a_31_n67# Gnd CMOSN w=4 l=2
+  ad=48 pd=40 as=48 ps=40
M1026 adder_sub_0/full_adder_0/xor_1/a_n32_n3# adder_sub_0/full_adder_0/a_n22_n3# gnd Gnd CMOSN w=4 l=2
+  ad=20 pd=18 as=0 ps=0
M1027 adder_sub_0/full_adder_0/xor_1/a_n1_n13# adder_sub_0/full_adder_0/xor_1/a_n87_n91# sum0 adder_sub_0/full_adder_0/xor_1/w_n8_n27# CMOSP w=8 l=2
+  ad=80 pd=52 as=80 ps=52
M1028 sum0 adder_sub_0/full_adder_0/a_n22_n3# adder_sub_0/full_adder_0/xor_1/a_n1_n67# Gnd CMOSN w=4 l=2
+  ad=0 pd=0 as=44 ps=38
M1029 vdd adder_sub_0/full_adder_0/a_n22_n3# adder_sub_0/full_adder_0/xor_1/a_n32_n3# adder_sub_0/full_adder_0/xor_1/w_n39_8# CMOSP w=8 l=2
+  ad=0 pd=0 as=40 ps=26
M1030 adder_sub_0/full_adder_0/xor_1/a_31_n67# adder_sub_0/full_adder_0/xor_1/a_n87_n91# gnd Gnd CMOSN w=4 l=2
+  ad=0 pd=0 as=0 ps=0
M1031 adder_sub_0/full_adder_0/xor_1/a_n87_n91# a_n281_120# gnd Gnd CMOSN w=4 l=2
+  ad=20 pd=18 as=0 ps=0
M1032 vdd adder_sub_0/full_adder_0/a_n22_n3# adder_sub_0/full_adder_0/xor_1/a_n1_n13# adder_sub_0/full_adder_0/xor_1/w_n8_8# CMOSP w=8 l=2
+  ad=0 pd=0 as=0 ps=0
M1033 vdd adder_sub_0/full_adder_0/xor_1/a_n32_n3# adder_sub_0/full_adder_0/xor_1/a_31_n13# adder_sub_0/full_adder_0/xor_1/w_24_8# CMOSP w=8 l=2
+  ad=0 pd=0 as=80 ps=52
M1034 adder_sub_0/full_adder_0/xor_1/a_31_n13# a_n281_120# sum0 adder_sub_0/full_adder_0/xor_1/w_24_n27# CMOSP w=8 l=2
+  ad=0 pd=0 as=0 ps=0
M1035 adder_sub_0/full_adder_0/xor_1/a_n1_n67# a_n281_120# gnd Gnd CMOSN w=4 l=2
+  ad=0 pd=0 as=0 ps=0
M1036 adder_sub_0/full_adder_0/m1_139_n111# adder_sub_0/full_adder_0/and2_0/a_n22_2# vdd adder_sub_0/full_adder_0/and2_0/not_0/w_n12_n9# CMOSP w=8 l=2
+  ad=40 pd=26 as=0 ps=0
M1037 adder_sub_0/full_adder_0/m1_139_n111# adder_sub_0/full_adder_0/and2_0/a_n22_2# gnd Gnd CMOSN w=4 l=2
+  ad=20 pd=18 as=0 ps=0
M1038 adder_sub_0/full_adder_0/and2_0/a_n22_2# adder_sub_0/full_adder_0/a_n22_n3# adder_sub_0/full_adder_0/and2_0/a_n22_n19# Gnd CMOSN w=4 l=2
+  ad=20 pd=18 as=140 ps=78
M1039 adder_sub_0/full_adder_0/and2_0/a_n22_2# a_n281_120# vdd adder_sub_0/full_adder_0/and2_0/w_n36_n4# CMOSP w=8 l=2
+  ad=80 pd=52 as=0 ps=0
M1040 adder_sub_0/full_adder_0/and2_0/a_n22_2# adder_sub_0/full_adder_0/a_n22_n3# vdd adder_sub_0/full_adder_0/and2_0/w_1_n4# CMOSP w=8 l=2
+  ad=0 pd=0 as=0 ps=0
M1041 adder_sub_0/full_adder_0/and2_0/a_n22_n19# a_n281_120# gnd Gnd CMOSN w=4 l=2
+  ad=0 pd=0 as=0 ps=0
M1042 adder_sub_0/full_adder_0/m1_140_n182# adder_sub_0/full_adder_0/and2_1/a_n22_2# vdd adder_sub_0/full_adder_0/and2_1/not_0/w_n12_n9# CMOSP w=8 l=2
+  ad=40 pd=26 as=0 ps=0
M1043 adder_sub_0/full_adder_0/m1_140_n182# adder_sub_0/full_adder_0/and2_1/a_n22_2# gnd Gnd CMOSN w=4 l=2
+  ad=20 pd=18 as=0 ps=0
M1044 adder_sub_0/full_adder_0/and2_1/a_n22_2# adder_sub_0/a_n219_233# adder_sub_0/full_adder_0/and2_1/a_n22_n19# Gnd CMOSN w=4 l=2
+  ad=20 pd=18 as=140 ps=78
M1045 adder_sub_0/full_adder_0/and2_1/a_n22_2# adder_sub_0/m1_n35_n310# vdd adder_sub_0/full_adder_0/and2_1/w_n36_n4# CMOSP w=8 l=2
+  ad=80 pd=52 as=0 ps=0
M1046 adder_sub_0/full_adder_0/and2_1/a_n22_2# adder_sub_0/a_n219_233# vdd adder_sub_0/full_adder_0/and2_1/w_1_n4# CMOSP w=8 l=2
+  ad=0 pd=0 as=0 ps=0
M1047 adder_sub_0/full_adder_0/and2_1/a_n22_n19# adder_sub_0/m1_n35_n310# gnd Gnd CMOSN w=4 l=2
+  ad=0 pd=0 as=0 ps=0
M1048 adder_sub_0/m2_295_n561# adder_sub_0/full_adder_1/or2_0/a_0_n7# vdd adder_sub_0/full_adder_1/or2_0/not_0/w_n12_n9# CMOSP w=8 l=2
+  ad=40 pd=26 as=0 ps=0
M1049 adder_sub_0/m2_295_n561# adder_sub_0/full_adder_1/or2_0/a_0_n7# gnd Gnd CMOSN w=4 l=2
+  ad=20 pd=18 as=0 ps=0
M1050 adder_sub_0/full_adder_1/or2_0/a_0_16# adder_sub_0/full_adder_1/m1_140_n182# vdd adder_sub_0/full_adder_1/or2_0/w_n13_8# CMOSP w=8 l=2
+  ad=144 pd=52 as=0 ps=0
M1051 adder_sub_0/full_adder_1/or2_0/a_0_n7# adder_sub_0/full_adder_1/m1_139_n111# adder_sub_0/full_adder_1/or2_0/a_0_16# adder_sub_0/full_adder_1/or2_0/w_n13_8# CMOSP w=8 l=2
+  ad=40 pd=26 as=0 ps=0
M1052 adder_sub_0/full_adder_1/or2_0/a_0_n7# adder_sub_0/full_adder_1/m1_140_n182# gnd Gnd CMOSN w=4 l=2
+  ad=40 pd=36 as=0 ps=0
M1053 adder_sub_0/full_adder_1/or2_0/a_0_n7# adder_sub_0/full_adder_1/m1_139_n111# gnd Gnd CMOSN w=4 l=2
+  ad=0 pd=0 as=0 ps=0
M1054 vdd adder_sub_0/m1_n52_n451# adder_sub_0/full_adder_1/xor_0/a_n87_n91# adder_sub_0/full_adder_1/xor_0/w_n39_n58# CMOSP w=8 l=2
+  ad=0 pd=0 as=40 ps=26
M1055 adder_sub_0/full_adder_1/a_n22_n3# adder_sub_0/full_adder_1/xor_0/a_n32_n3# adder_sub_0/full_adder_1/xor_0/a_31_n67# Gnd CMOSN w=4 l=2
+  ad=48 pd=40 as=48 ps=40
M1056 adder_sub_0/full_adder_1/xor_0/a_n32_n3# adder_sub_0/a_n223_109# gnd Gnd CMOSN w=4 l=2
+  ad=20 pd=18 as=0 ps=0
M1057 adder_sub_0/full_adder_1/xor_0/a_n1_n13# adder_sub_0/full_adder_1/xor_0/a_n87_n91# adder_sub_0/full_adder_1/a_n22_n3# adder_sub_0/full_adder_1/xor_0/w_n8_n27# CMOSP w=8 l=2
+  ad=80 pd=52 as=80 ps=52
M1058 adder_sub_0/full_adder_1/a_n22_n3# adder_sub_0/a_n223_109# adder_sub_0/full_adder_1/xor_0/a_n1_n67# Gnd CMOSN w=4 l=2
+  ad=0 pd=0 as=44 ps=38
M1059 vdd adder_sub_0/a_n223_109# adder_sub_0/full_adder_1/xor_0/a_n32_n3# adder_sub_0/full_adder_1/xor_0/w_n39_8# CMOSP w=8 l=2
+  ad=0 pd=0 as=40 ps=26
M1060 adder_sub_0/full_adder_1/xor_0/a_31_n67# adder_sub_0/full_adder_1/xor_0/a_n87_n91# gnd Gnd CMOSN w=4 l=2
+  ad=0 pd=0 as=0 ps=0
M1061 adder_sub_0/full_adder_1/xor_0/a_n87_n91# adder_sub_0/m1_n52_n451# gnd Gnd CMOSN w=4 l=2
+  ad=20 pd=18 as=0 ps=0
M1062 vdd adder_sub_0/a_n223_109# adder_sub_0/full_adder_1/xor_0/a_n1_n13# adder_sub_0/full_adder_1/xor_0/w_n8_8# CMOSP w=8 l=2
+  ad=0 pd=0 as=0 ps=0
M1063 vdd adder_sub_0/full_adder_1/xor_0/a_n32_n3# adder_sub_0/full_adder_1/xor_0/a_31_n13# adder_sub_0/full_adder_1/xor_0/w_24_8# CMOSP w=8 l=2
+  ad=0 pd=0 as=80 ps=52
M1064 adder_sub_0/full_adder_1/xor_0/a_31_n13# adder_sub_0/m1_n52_n451# adder_sub_0/full_adder_1/a_n22_n3# adder_sub_0/full_adder_1/xor_0/w_24_n27# CMOSP w=8 l=2
+  ad=0 pd=0 as=0 ps=0
M1065 adder_sub_0/full_adder_1/xor_0/a_n1_n67# adder_sub_0/m1_n52_n451# gnd Gnd CMOSN w=4 l=2
+  ad=0 pd=0 as=0 ps=0
M1066 vdd adder_sub_0/m2_301_n241# adder_sub_0/full_adder_1/xor_1/a_n87_n91# adder_sub_0/full_adder_1/xor_1/w_n39_n58# CMOSP w=8 l=2
+  ad=0 pd=0 as=40 ps=26
M1067 sum1 adder_sub_0/full_adder_1/xor_1/a_n32_n3# adder_sub_0/full_adder_1/xor_1/a_31_n67# Gnd CMOSN w=4 l=2
+  ad=48 pd=40 as=48 ps=40
M1068 adder_sub_0/full_adder_1/xor_1/a_n32_n3# adder_sub_0/full_adder_1/a_n22_n3# gnd Gnd CMOSN w=4 l=2
+  ad=20 pd=18 as=0 ps=0
M1069 adder_sub_0/full_adder_1/xor_1/a_n1_n13# adder_sub_0/full_adder_1/xor_1/a_n87_n91# sum1 adder_sub_0/full_adder_1/xor_1/w_n8_n27# CMOSP w=8 l=2
+  ad=80 pd=52 as=80 ps=52
M1070 sum1 adder_sub_0/full_adder_1/a_n22_n3# adder_sub_0/full_adder_1/xor_1/a_n1_n67# Gnd CMOSN w=4 l=2
+  ad=0 pd=0 as=44 ps=38
M1071 vdd adder_sub_0/full_adder_1/a_n22_n3# adder_sub_0/full_adder_1/xor_1/a_n32_n3# adder_sub_0/full_adder_1/xor_1/w_n39_8# CMOSP w=8 l=2
+  ad=0 pd=0 as=40 ps=26
M1072 adder_sub_0/full_adder_1/xor_1/a_31_n67# adder_sub_0/full_adder_1/xor_1/a_n87_n91# gnd Gnd CMOSN w=4 l=2
+  ad=0 pd=0 as=0 ps=0
M1073 adder_sub_0/full_adder_1/xor_1/a_n87_n91# adder_sub_0/m2_301_n241# gnd Gnd CMOSN w=4 l=2
+  ad=20 pd=18 as=0 ps=0
M1074 vdd adder_sub_0/full_adder_1/a_n22_n3# adder_sub_0/full_adder_1/xor_1/a_n1_n13# adder_sub_0/full_adder_1/xor_1/w_n8_8# CMOSP w=8 l=2
+  ad=0 pd=0 as=0 ps=0
M1075 vdd adder_sub_0/full_adder_1/xor_1/a_n32_n3# adder_sub_0/full_adder_1/xor_1/a_31_n13# adder_sub_0/full_adder_1/xor_1/w_24_8# CMOSP w=8 l=2
+  ad=0 pd=0 as=80 ps=52
M1076 adder_sub_0/full_adder_1/xor_1/a_31_n13# adder_sub_0/m2_301_n241# sum1 adder_sub_0/full_adder_1/xor_1/w_24_n27# CMOSP w=8 l=2
+  ad=0 pd=0 as=0 ps=0
M1077 adder_sub_0/full_adder_1/xor_1/a_n1_n67# adder_sub_0/m2_301_n241# gnd Gnd CMOSN w=4 l=2
+  ad=0 pd=0 as=0 ps=0
M1078 adder_sub_0/full_adder_1/m1_139_n111# adder_sub_0/full_adder_1/and2_0/a_n22_2# vdd adder_sub_0/full_adder_1/and2_0/not_0/w_n12_n9# CMOSP w=8 l=2
+  ad=40 pd=26 as=0 ps=0
M1079 adder_sub_0/full_adder_1/m1_139_n111# adder_sub_0/full_adder_1/and2_0/a_n22_2# gnd Gnd CMOSN w=4 l=2
+  ad=20 pd=18 as=0 ps=0
M1080 adder_sub_0/full_adder_1/and2_0/a_n22_2# adder_sub_0/full_adder_1/a_n22_n3# adder_sub_0/full_adder_1/and2_0/a_n22_n19# Gnd CMOSN w=4 l=2
+  ad=20 pd=18 as=140 ps=78
M1081 adder_sub_0/full_adder_1/and2_0/a_n22_2# adder_sub_0/m2_301_n241# vdd adder_sub_0/full_adder_1/and2_0/w_n36_n4# CMOSP w=8 l=2
+  ad=80 pd=52 as=0 ps=0
M1082 adder_sub_0/full_adder_1/and2_0/a_n22_2# adder_sub_0/full_adder_1/a_n22_n3# vdd adder_sub_0/full_adder_1/and2_0/w_1_n4# CMOSP w=8 l=2
+  ad=0 pd=0 as=0 ps=0
M1083 adder_sub_0/full_adder_1/and2_0/a_n22_n19# adder_sub_0/m2_301_n241# gnd Gnd CMOSN w=4 l=2
+  ad=0 pd=0 as=0 ps=0
M1084 adder_sub_0/full_adder_1/m1_140_n182# adder_sub_0/full_adder_1/and2_1/a_n22_2# vdd adder_sub_0/full_adder_1/and2_1/not_0/w_n12_n9# CMOSP w=8 l=2
+  ad=40 pd=26 as=0 ps=0
M1085 adder_sub_0/full_adder_1/m1_140_n182# adder_sub_0/full_adder_1/and2_1/a_n22_2# gnd Gnd CMOSN w=4 l=2
+  ad=20 pd=18 as=0 ps=0
M1086 adder_sub_0/full_adder_1/and2_1/a_n22_2# adder_sub_0/a_n223_109# adder_sub_0/full_adder_1/and2_1/a_n22_n19# Gnd CMOSN w=4 l=2
+  ad=20 pd=18 as=140 ps=78
M1087 adder_sub_0/full_adder_1/and2_1/a_n22_2# adder_sub_0/m1_n52_n451# vdd adder_sub_0/full_adder_1/and2_1/w_n36_n4# CMOSP w=8 l=2
+  ad=80 pd=52 as=0 ps=0
M1088 adder_sub_0/full_adder_1/and2_1/a_n22_2# adder_sub_0/a_n223_109# vdd adder_sub_0/full_adder_1/and2_1/w_1_n4# CMOSP w=8 l=2
+  ad=0 pd=0 as=0 ps=0
M1089 adder_sub_0/full_adder_1/and2_1/a_n22_n19# adder_sub_0/m1_n52_n451# gnd Gnd CMOSN w=4 l=2
+  ad=0 pd=0 as=0 ps=0
M1090 adder_sub_0/m2_292_n883# adder_sub_0/full_adder_2/or2_0/a_0_n7# vdd adder_sub_0/full_adder_2/or2_0/not_0/w_n12_n9# CMOSP w=8 l=2
+  ad=40 pd=26 as=0 ps=0
M1091 adder_sub_0/m2_292_n883# adder_sub_0/full_adder_2/or2_0/a_0_n7# gnd Gnd CMOSN w=4 l=2
+  ad=20 pd=18 as=0 ps=0
M1092 adder_sub_0/full_adder_2/or2_0/a_0_16# adder_sub_0/full_adder_2/m1_140_n182# vdd adder_sub_0/full_adder_2/or2_0/w_n13_8# CMOSP w=8 l=2
+  ad=144 pd=52 as=0 ps=0
M1093 adder_sub_0/full_adder_2/or2_0/a_0_n7# adder_sub_0/full_adder_2/m1_139_n111# adder_sub_0/full_adder_2/or2_0/a_0_16# adder_sub_0/full_adder_2/or2_0/w_n13_8# CMOSP w=8 l=2
+  ad=40 pd=26 as=0 ps=0
M1094 adder_sub_0/full_adder_2/or2_0/a_0_n7# adder_sub_0/full_adder_2/m1_140_n182# gnd Gnd CMOSN w=4 l=2
+  ad=40 pd=36 as=0 ps=0
M1095 adder_sub_0/full_adder_2/or2_0/a_0_n7# adder_sub_0/full_adder_2/m1_139_n111# gnd Gnd CMOSN w=4 l=2
+  ad=0 pd=0 as=0 ps=0
M1096 vdd adder_sub_0/m1_n55_n594# adder_sub_0/full_adder_2/xor_0/a_n87_n91# adder_sub_0/full_adder_2/xor_0/w_n39_n58# CMOSP w=8 l=2
+  ad=0 pd=0 as=40 ps=26
M1097 adder_sub_0/full_adder_2/a_n22_n3# adder_sub_0/full_adder_2/xor_0/a_n32_n3# adder_sub_0/full_adder_2/xor_0/a_31_n67# Gnd CMOSN w=4 l=2
+  ad=48 pd=40 as=48 ps=40
M1098 adder_sub_0/full_adder_2/xor_0/a_n32_n3# adder_sub_0/a_n223_n19# gnd Gnd CMOSN w=4 l=2
+  ad=20 pd=18 as=0 ps=0
M1099 adder_sub_0/full_adder_2/xor_0/a_n1_n13# adder_sub_0/full_adder_2/xor_0/a_n87_n91# adder_sub_0/full_adder_2/a_n22_n3# adder_sub_0/full_adder_2/xor_0/w_n8_n27# CMOSP w=8 l=2
+  ad=80 pd=52 as=80 ps=52
M1100 adder_sub_0/full_adder_2/a_n22_n3# adder_sub_0/a_n223_n19# adder_sub_0/full_adder_2/xor_0/a_n1_n67# Gnd CMOSN w=4 l=2
+  ad=0 pd=0 as=44 ps=38
M1101 vdd adder_sub_0/a_n223_n19# adder_sub_0/full_adder_2/xor_0/a_n32_n3# adder_sub_0/full_adder_2/xor_0/w_n39_8# CMOSP w=8 l=2
+  ad=0 pd=0 as=40 ps=26
M1102 adder_sub_0/full_adder_2/xor_0/a_31_n67# adder_sub_0/full_adder_2/xor_0/a_n87_n91# gnd Gnd CMOSN w=4 l=2
+  ad=0 pd=0 as=0 ps=0
M1103 adder_sub_0/full_adder_2/xor_0/a_n87_n91# adder_sub_0/m1_n55_n594# gnd Gnd CMOSN w=4 l=2
+  ad=20 pd=18 as=0 ps=0
M1104 vdd adder_sub_0/a_n223_n19# adder_sub_0/full_adder_2/xor_0/a_n1_n13# adder_sub_0/full_adder_2/xor_0/w_n8_8# CMOSP w=8 l=2
+  ad=0 pd=0 as=0 ps=0
M1105 vdd adder_sub_0/full_adder_2/xor_0/a_n32_n3# adder_sub_0/full_adder_2/xor_0/a_31_n13# adder_sub_0/full_adder_2/xor_0/w_24_8# CMOSP w=8 l=2
+  ad=0 pd=0 as=80 ps=52
M1106 adder_sub_0/full_adder_2/xor_0/a_31_n13# adder_sub_0/m1_n55_n594# adder_sub_0/full_adder_2/a_n22_n3# adder_sub_0/full_adder_2/xor_0/w_24_n27# CMOSP w=8 l=2
+  ad=0 pd=0 as=0 ps=0
M1107 adder_sub_0/full_adder_2/xor_0/a_n1_n67# adder_sub_0/m1_n55_n594# gnd Gnd CMOSN w=4 l=2
+  ad=0 pd=0 as=0 ps=0
M1108 vdd adder_sub_0/m2_295_n561# adder_sub_0/full_adder_2/xor_1/a_n87_n91# adder_sub_0/full_adder_2/xor_1/w_n39_n58# CMOSP w=8 l=2
+  ad=0 pd=0 as=40 ps=26
M1109 sum2 adder_sub_0/full_adder_2/xor_1/a_n32_n3# adder_sub_0/full_adder_2/xor_1/a_31_n67# Gnd CMOSN w=4 l=2
+  ad=48 pd=40 as=48 ps=40
M1110 adder_sub_0/full_adder_2/xor_1/a_n32_n3# adder_sub_0/full_adder_2/a_n22_n3# gnd Gnd CMOSN w=4 l=2
+  ad=20 pd=18 as=0 ps=0
M1111 adder_sub_0/full_adder_2/xor_1/a_n1_n13# adder_sub_0/full_adder_2/xor_1/a_n87_n91# sum2 adder_sub_0/full_adder_2/xor_1/w_n8_n27# CMOSP w=8 l=2
+  ad=80 pd=52 as=80 ps=52
M1112 sum2 adder_sub_0/full_adder_2/a_n22_n3# adder_sub_0/full_adder_2/xor_1/a_n1_n67# Gnd CMOSN w=4 l=2
+  ad=0 pd=0 as=44 ps=38
M1113 vdd adder_sub_0/full_adder_2/a_n22_n3# adder_sub_0/full_adder_2/xor_1/a_n32_n3# adder_sub_0/full_adder_2/xor_1/w_n39_8# CMOSP w=8 l=2
+  ad=0 pd=0 as=40 ps=26
M1114 adder_sub_0/full_adder_2/xor_1/a_31_n67# adder_sub_0/full_adder_2/xor_1/a_n87_n91# gnd Gnd CMOSN w=4 l=2
+  ad=0 pd=0 as=0 ps=0
M1115 adder_sub_0/full_adder_2/xor_1/a_n87_n91# adder_sub_0/m2_295_n561# gnd Gnd CMOSN w=4 l=2
+  ad=20 pd=18 as=0 ps=0
M1116 vdd adder_sub_0/full_adder_2/a_n22_n3# adder_sub_0/full_adder_2/xor_1/a_n1_n13# adder_sub_0/full_adder_2/xor_1/w_n8_8# CMOSP w=8 l=2
+  ad=0 pd=0 as=0 ps=0
M1117 vdd adder_sub_0/full_adder_2/xor_1/a_n32_n3# adder_sub_0/full_adder_2/xor_1/a_31_n13# adder_sub_0/full_adder_2/xor_1/w_24_8# CMOSP w=8 l=2
+  ad=0 pd=0 as=80 ps=52
M1118 adder_sub_0/full_adder_2/xor_1/a_31_n13# adder_sub_0/m2_295_n561# sum2 adder_sub_0/full_adder_2/xor_1/w_24_n27# CMOSP w=8 l=2
+  ad=0 pd=0 as=0 ps=0
M1119 adder_sub_0/full_adder_2/xor_1/a_n1_n67# adder_sub_0/m2_295_n561# gnd Gnd CMOSN w=4 l=2
+  ad=0 pd=0 as=0 ps=0
M1120 adder_sub_0/full_adder_2/m1_139_n111# adder_sub_0/full_adder_2/and2_0/a_n22_2# vdd adder_sub_0/full_adder_2/and2_0/not_0/w_n12_n9# CMOSP w=8 l=2
+  ad=40 pd=26 as=0 ps=0
M1121 adder_sub_0/full_adder_2/m1_139_n111# adder_sub_0/full_adder_2/and2_0/a_n22_2# gnd Gnd CMOSN w=4 l=2
+  ad=20 pd=18 as=0 ps=0
M1122 adder_sub_0/full_adder_2/and2_0/a_n22_2# adder_sub_0/full_adder_2/a_n22_n3# adder_sub_0/full_adder_2/and2_0/a_n22_n19# Gnd CMOSN w=4 l=2
+  ad=20 pd=18 as=140 ps=78
M1123 adder_sub_0/full_adder_2/and2_0/a_n22_2# adder_sub_0/m2_295_n561# vdd adder_sub_0/full_adder_2/and2_0/w_n36_n4# CMOSP w=8 l=2
+  ad=80 pd=52 as=0 ps=0
M1124 adder_sub_0/full_adder_2/and2_0/a_n22_2# adder_sub_0/full_adder_2/a_n22_n3# vdd adder_sub_0/full_adder_2/and2_0/w_1_n4# CMOSP w=8 l=2
+  ad=0 pd=0 as=0 ps=0
M1125 adder_sub_0/full_adder_2/and2_0/a_n22_n19# adder_sub_0/m2_295_n561# gnd Gnd CMOSN w=4 l=2
+  ad=0 pd=0 as=0 ps=0
M1126 adder_sub_0/full_adder_2/m1_140_n182# adder_sub_0/full_adder_2/and2_1/a_n22_2# vdd adder_sub_0/full_adder_2/and2_1/not_0/w_n12_n9# CMOSP w=8 l=2
+  ad=40 pd=26 as=0 ps=0
M1127 adder_sub_0/full_adder_2/m1_140_n182# adder_sub_0/full_adder_2/and2_1/a_n22_2# gnd Gnd CMOSN w=4 l=2
+  ad=20 pd=18 as=0 ps=0
M1128 adder_sub_0/full_adder_2/and2_1/a_n22_2# adder_sub_0/a_n223_n19# adder_sub_0/full_adder_2/and2_1/a_n22_n19# Gnd CMOSN w=4 l=2
+  ad=20 pd=18 as=140 ps=78
M1129 adder_sub_0/full_adder_2/and2_1/a_n22_2# adder_sub_0/m1_n55_n594# vdd adder_sub_0/full_adder_2/and2_1/w_n36_n4# CMOSP w=8 l=2
+  ad=80 pd=52 as=0 ps=0
M1130 adder_sub_0/full_adder_2/and2_1/a_n22_2# adder_sub_0/a_n223_n19# vdd adder_sub_0/full_adder_2/and2_1/w_1_n4# CMOSP w=8 l=2
+  ad=0 pd=0 as=0 ps=0
M1131 adder_sub_0/full_adder_2/and2_1/a_n22_n19# adder_sub_0/m1_n55_n594# gnd Gnd CMOSN w=4 l=2
+  ad=0 pd=0 as=0 ps=0
M1132 carry adder_sub_0/full_adder_3/or2_0/a_0_n7# vdd adder_sub_0/full_adder_3/or2_0/not_0/w_n12_n9# CMOSP w=8 l=2
+  ad=40 pd=26 as=0 ps=0
M1133 carry adder_sub_0/full_adder_3/or2_0/a_0_n7# gnd Gnd CMOSN w=4 l=2
+  ad=20 pd=18 as=0 ps=0
M1134 adder_sub_0/full_adder_3/or2_0/a_0_16# adder_sub_0/full_adder_3/m1_140_n182# vdd adder_sub_0/full_adder_3/or2_0/w_n13_8# CMOSP w=8 l=2
+  ad=144 pd=52 as=0 ps=0
M1135 adder_sub_0/full_adder_3/or2_0/a_0_n7# adder_sub_0/full_adder_3/m1_139_n111# adder_sub_0/full_adder_3/or2_0/a_0_16# adder_sub_0/full_adder_3/or2_0/w_n13_8# CMOSP w=8 l=2
+  ad=40 pd=26 as=0 ps=0
M1136 adder_sub_0/full_adder_3/or2_0/a_0_n7# adder_sub_0/full_adder_3/m1_140_n182# gnd Gnd CMOSN w=4 l=2
+  ad=40 pd=36 as=0 ps=0
M1137 adder_sub_0/full_adder_3/or2_0/a_0_n7# adder_sub_0/full_adder_3/m1_139_n111# gnd Gnd CMOSN w=4 l=2
+  ad=0 pd=0 as=0 ps=0
M1138 vdd adder_sub_0/m1_n70_n739# adder_sub_0/full_adder_3/xor_0/a_n87_n91# adder_sub_0/full_adder_3/xor_0/w_n39_n58# CMOSP w=8 l=2
+  ad=0 pd=0 as=40 ps=26
M1139 adder_sub_0/full_adder_3/a_n22_n3# adder_sub_0/full_adder_3/xor_0/a_n32_n3# adder_sub_0/full_adder_3/xor_0/a_31_n67# Gnd CMOSN w=4 l=2
+  ad=48 pd=40 as=48 ps=40
M1140 adder_sub_0/full_adder_3/xor_0/a_n32_n3# adder_sub_0/a_n225_n140# gnd Gnd CMOSN w=4 l=2
+  ad=20 pd=18 as=0 ps=0
M1141 adder_sub_0/full_adder_3/xor_0/a_n1_n13# adder_sub_0/full_adder_3/xor_0/a_n87_n91# adder_sub_0/full_adder_3/a_n22_n3# adder_sub_0/full_adder_3/xor_0/w_n8_n27# CMOSP w=8 l=2
+  ad=80 pd=52 as=80 ps=52
M1142 adder_sub_0/full_adder_3/a_n22_n3# adder_sub_0/a_n225_n140# adder_sub_0/full_adder_3/xor_0/a_n1_n67# Gnd CMOSN w=4 l=2
+  ad=0 pd=0 as=44 ps=38
M1143 vdd adder_sub_0/a_n225_n140# adder_sub_0/full_adder_3/xor_0/a_n32_n3# adder_sub_0/full_adder_3/xor_0/w_n39_8# CMOSP w=8 l=2
+  ad=0 pd=0 as=40 ps=26
M1144 adder_sub_0/full_adder_3/xor_0/a_31_n67# adder_sub_0/full_adder_3/xor_0/a_n87_n91# gnd Gnd CMOSN w=4 l=2
+  ad=0 pd=0 as=0 ps=0
M1145 adder_sub_0/full_adder_3/xor_0/a_n87_n91# adder_sub_0/m1_n70_n739# gnd Gnd CMOSN w=4 l=2
+  ad=20 pd=18 as=0 ps=0
M1146 vdd adder_sub_0/a_n225_n140# adder_sub_0/full_adder_3/xor_0/a_n1_n13# adder_sub_0/full_adder_3/xor_0/w_n8_8# CMOSP w=8 l=2
+  ad=0 pd=0 as=0 ps=0
M1147 vdd adder_sub_0/full_adder_3/xor_0/a_n32_n3# adder_sub_0/full_adder_3/xor_0/a_31_n13# adder_sub_0/full_adder_3/xor_0/w_24_8# CMOSP w=8 l=2
+  ad=0 pd=0 as=80 ps=52
M1148 adder_sub_0/full_adder_3/xor_0/a_31_n13# adder_sub_0/m1_n70_n739# adder_sub_0/full_adder_3/a_n22_n3# adder_sub_0/full_adder_3/xor_0/w_24_n27# CMOSP w=8 l=2
+  ad=0 pd=0 as=0 ps=0
M1149 adder_sub_0/full_adder_3/xor_0/a_n1_n67# adder_sub_0/m1_n70_n739# gnd Gnd CMOSN w=4 l=2
+  ad=0 pd=0 as=0 ps=0
M1150 vdd adder_sub_0/m2_292_n883# adder_sub_0/full_adder_3/xor_1/a_n87_n91# adder_sub_0/full_adder_3/xor_1/w_n39_n58# CMOSP w=8 l=2
+  ad=0 pd=0 as=40 ps=26
M1151 sum3 adder_sub_0/full_adder_3/xor_1/a_n32_n3# adder_sub_0/full_adder_3/xor_1/a_31_n67# Gnd CMOSN w=4 l=2
+  ad=48 pd=40 as=48 ps=40
M1152 adder_sub_0/full_adder_3/xor_1/a_n32_n3# adder_sub_0/full_adder_3/a_n22_n3# gnd Gnd CMOSN w=4 l=2
+  ad=20 pd=18 as=0 ps=0
M1153 adder_sub_0/full_adder_3/xor_1/a_n1_n13# adder_sub_0/full_adder_3/xor_1/a_n87_n91# sum3 adder_sub_0/full_adder_3/xor_1/w_n8_n27# CMOSP w=8 l=2
+  ad=80 pd=52 as=80 ps=52
M1154 sum3 adder_sub_0/full_adder_3/a_n22_n3# adder_sub_0/full_adder_3/xor_1/a_n1_n67# Gnd CMOSN w=4 l=2
+  ad=0 pd=0 as=44 ps=38
M1155 vdd adder_sub_0/full_adder_3/a_n22_n3# adder_sub_0/full_adder_3/xor_1/a_n32_n3# adder_sub_0/full_adder_3/xor_1/w_n39_8# CMOSP w=8 l=2
+  ad=0 pd=0 as=40 ps=26
M1156 adder_sub_0/full_adder_3/xor_1/a_31_n67# adder_sub_0/full_adder_3/xor_1/a_n87_n91# gnd Gnd CMOSN w=4 l=2
+  ad=0 pd=0 as=0 ps=0
M1157 adder_sub_0/full_adder_3/xor_1/a_n87_n91# adder_sub_0/m2_292_n883# gnd Gnd CMOSN w=4 l=2
+  ad=20 pd=18 as=0 ps=0
M1158 vdd adder_sub_0/full_adder_3/a_n22_n3# adder_sub_0/full_adder_3/xor_1/a_n1_n13# adder_sub_0/full_adder_3/xor_1/w_n8_8# CMOSP w=8 l=2
+  ad=0 pd=0 as=0 ps=0
M1159 vdd adder_sub_0/full_adder_3/xor_1/a_n32_n3# adder_sub_0/full_adder_3/xor_1/a_31_n13# adder_sub_0/full_adder_3/xor_1/w_24_8# CMOSP w=8 l=2
+  ad=0 pd=0 as=80 ps=52
M1160 adder_sub_0/full_adder_3/xor_1/a_31_n13# adder_sub_0/m2_292_n883# sum3 adder_sub_0/full_adder_3/xor_1/w_24_n27# CMOSP w=8 l=2
+  ad=0 pd=0 as=0 ps=0
M1161 adder_sub_0/full_adder_3/xor_1/a_n1_n67# adder_sub_0/m2_292_n883# gnd Gnd CMOSN w=4 l=2
+  ad=0 pd=0 as=0 ps=0
M1162 adder_sub_0/full_adder_3/m1_139_n111# adder_sub_0/full_adder_3/and2_0/a_n22_2# vdd adder_sub_0/full_adder_3/and2_0/not_0/w_n12_n9# CMOSP w=8 l=2
+  ad=40 pd=26 as=0 ps=0
M1163 adder_sub_0/full_adder_3/m1_139_n111# adder_sub_0/full_adder_3/and2_0/a_n22_2# gnd Gnd CMOSN w=4 l=2
+  ad=20 pd=18 as=0 ps=0
M1164 adder_sub_0/full_adder_3/and2_0/a_n22_2# adder_sub_0/full_adder_3/a_n22_n3# adder_sub_0/full_adder_3/and2_0/a_n22_n19# Gnd CMOSN w=4 l=2
+  ad=20 pd=18 as=140 ps=78
M1165 adder_sub_0/full_adder_3/and2_0/a_n22_2# adder_sub_0/m2_292_n883# vdd adder_sub_0/full_adder_3/and2_0/w_n36_n4# CMOSP w=8 l=2
+  ad=80 pd=52 as=0 ps=0
M1166 adder_sub_0/full_adder_3/and2_0/a_n22_2# adder_sub_0/full_adder_3/a_n22_n3# vdd adder_sub_0/full_adder_3/and2_0/w_1_n4# CMOSP w=8 l=2
+  ad=0 pd=0 as=0 ps=0
M1167 adder_sub_0/full_adder_3/and2_0/a_n22_n19# adder_sub_0/m2_292_n883# gnd Gnd CMOSN w=4 l=2
+  ad=0 pd=0 as=0 ps=0
M1168 adder_sub_0/full_adder_3/m1_140_n182# adder_sub_0/full_adder_3/and2_1/a_n22_2# vdd adder_sub_0/full_adder_3/and2_1/not_0/w_n12_n9# CMOSP w=8 l=2
+  ad=40 pd=26 as=0 ps=0
M1169 adder_sub_0/full_adder_3/m1_140_n182# adder_sub_0/full_adder_3/and2_1/a_n22_2# gnd Gnd CMOSN w=4 l=2
+  ad=20 pd=18 as=0 ps=0
M1170 adder_sub_0/full_adder_3/and2_1/a_n22_2# adder_sub_0/a_n225_n140# adder_sub_0/full_adder_3/and2_1/a_n22_n19# Gnd CMOSN w=4 l=2
+  ad=20 pd=18 as=140 ps=78
M1171 adder_sub_0/full_adder_3/and2_1/a_n22_2# adder_sub_0/m1_n70_n739# vdd adder_sub_0/full_adder_3/and2_1/w_n36_n4# CMOSP w=8 l=2
+  ad=80 pd=52 as=0 ps=0
M1172 adder_sub_0/full_adder_3/and2_1/a_n22_2# adder_sub_0/a_n225_n140# vdd adder_sub_0/full_adder_3/and2_1/w_1_n4# CMOSP w=8 l=2
+  ad=0 pd=0 as=0 ps=0
M1173 adder_sub_0/full_adder_3/and2_1/a_n22_n19# adder_sub_0/m1_n70_n739# gnd Gnd CMOSN w=4 l=2
+  ad=0 pd=0 as=0 ps=0
M1174 vdd a_n281_120# adder_sub_0/xor_0/a_n87_n91# adder_sub_0/xor_0/w_n39_n58# CMOSP w=8 l=2
+  ad=0 pd=0 as=40 ps=26
M1175 adder_sub_0/m1_n35_n310# adder_sub_0/xor_0/a_n32_n3# adder_sub_0/xor_0/a_31_n67# Gnd CMOSN w=4 l=2
+  ad=48 pd=40 as=48 ps=40
M1176 adder_sub_0/xor_0/a_n32_n3# adder_sub_0/a_n219_n281# gnd Gnd CMOSN w=4 l=2
+  ad=20 pd=18 as=0 ps=0
M1177 adder_sub_0/xor_0/a_n1_n13# adder_sub_0/xor_0/a_n87_n91# adder_sub_0/m1_n35_n310# adder_sub_0/xor_0/w_n8_n27# CMOSP w=8 l=2
+  ad=80 pd=52 as=80 ps=52
M1178 adder_sub_0/m1_n35_n310# adder_sub_0/a_n219_n281# adder_sub_0/xor_0/a_n1_n67# Gnd CMOSN w=4 l=2
+  ad=0 pd=0 as=44 ps=38
M1179 vdd adder_sub_0/a_n219_n281# adder_sub_0/xor_0/a_n32_n3# adder_sub_0/xor_0/w_n39_8# CMOSP w=8 l=2
+  ad=0 pd=0 as=40 ps=26
M1180 adder_sub_0/xor_0/a_31_n67# adder_sub_0/xor_0/a_n87_n91# gnd Gnd CMOSN w=4 l=2
+  ad=0 pd=0 as=0 ps=0
M1181 adder_sub_0/xor_0/a_n87_n91# a_n281_120# gnd Gnd CMOSN w=4 l=2
+  ad=20 pd=18 as=0 ps=0
M1182 vdd adder_sub_0/a_n219_n281# adder_sub_0/xor_0/a_n1_n13# adder_sub_0/xor_0/w_n8_8# CMOSP w=8 l=2
+  ad=0 pd=0 as=0 ps=0
M1183 vdd adder_sub_0/xor_0/a_n32_n3# adder_sub_0/xor_0/a_31_n13# adder_sub_0/xor_0/w_24_8# CMOSP w=8 l=2
+  ad=0 pd=0 as=80 ps=52
M1184 adder_sub_0/xor_0/a_31_n13# a_n281_120# adder_sub_0/m1_n35_n310# adder_sub_0/xor_0/w_24_n27# CMOSP w=8 l=2
+  ad=0 pd=0 as=0 ps=0
M1185 adder_sub_0/xor_0/a_n1_n67# a_n281_120# gnd Gnd CMOSN w=4 l=2
+  ad=0 pd=0 as=0 ps=0
M1186 adder_sub_0/a_n225_n140# adder_sub_0/enable_0/and2_0/a_n22_2# vdd adder_sub_0/enable_0/and2_0/not_0/w_n12_n9# CMOSP w=8 l=2
+  ad=40 pd=26 as=0 ps=0
M1187 adder_sub_0/a_n225_n140# adder_sub_0/enable_0/and2_0/a_n22_2# gnd Gnd CMOSN w=4 l=2
+  ad=20 pd=18 as=0 ps=0
M1188 adder_sub_0/enable_0/and2_0/a_n22_2# a3 adder_sub_0/enable_0/and2_0/a_n22_n19# Gnd CMOSN w=4 l=2
+  ad=20 pd=18 as=140 ps=78
M1189 adder_sub_0/enable_0/and2_0/a_n22_2# m1_n97_n30# vdd adder_sub_0/enable_0/and2_0/w_n36_n4# CMOSP w=8 l=2
+  ad=80 pd=52 as=0 ps=0
M1190 adder_sub_0/enable_0/and2_0/a_n22_2# a3 vdd adder_sub_0/enable_0/and2_0/w_1_n4# CMOSP w=8 l=2
+  ad=0 pd=0 as=0 ps=0
M1191 adder_sub_0/enable_0/and2_0/a_n22_n19# m1_n97_n30# gnd Gnd CMOSN w=4 l=2
+  ad=0 pd=0 as=0 ps=0
M1192 adder_sub_0/enable_0/a_139_50# m1_n97_n30# gnd Gnd CMOSN w=4 l=2
+  ad=140 pd=78 as=0 ps=0
M1193 adder_sub_0/enable_0/a_263_47# m1_n97_n30# gnd Gnd CMOSN w=4 l=2
+  ad=140 pd=78 as=0 ps=0
M1194 adder_sub_0/a_n223_109# adder_sub_0/enable_0/a_139_71# vdd adder_sub_0/enable_0/w_202_62# CMOSP w=8 l=2
+  ad=40 pd=26 as=0 ps=0
M1195 adder_sub_0/enable_0/a_9_72# m1_n97_n30# vdd adder_sub_0/enable_0/w_n5_66# CMOSP w=8 l=2
+  ad=80 pd=52 as=0 ps=0
M1196 adder_sub_0/enable_0/a_139_71# a1 vdd adder_sub_0/enable_0/w_162_65# CMOSP w=8 l=2
+  ad=80 pd=52 as=0 ps=0
M1197 adder_sub_0/enable_0/a_263_68# a0 vdd adder_sub_0/enable_0/w_286_62# CMOSP w=8 l=2
+  ad=80 pd=52 as=0 ps=0
M1198 adder_sub_0/enable_0/a_9_72# a2 vdd adder_sub_0/enable_0/w_32_66# CMOSP w=8 l=2
+  ad=0 pd=0 as=0 ps=0
M1199 adder_sub_0/enable_0/a_9_51# m1_n97_n30# gnd Gnd CMOSN w=4 l=2
+  ad=140 pd=78 as=0 ps=0
M1200 adder_sub_0/enable_0/a_139_71# a1 adder_sub_0/enable_0/a_139_50# Gnd CMOSN w=4 l=2
+  ad=20 pd=18 as=0 ps=0
M1201 adder_sub_0/enable_0/a_263_68# a0 adder_sub_0/enable_0/a_263_47# Gnd CMOSN w=4 l=2
+  ad=20 pd=18 as=0 ps=0
M1202 adder_sub_0/enable_0/a_9_72# a2 adder_sub_0/enable_0/a_9_51# Gnd CMOSN w=4 l=2
+  ad=20 pd=18 as=0 ps=0
M1203 adder_sub_0/a_n223_n19# adder_sub_0/enable_0/a_9_72# vdd adder_sub_0/enable_0/w_72_63# CMOSP w=8 l=2
+  ad=40 pd=26 as=0 ps=0
M1204 adder_sub_0/enable_0/a_139_71# m1_n97_n30# vdd adder_sub_0/enable_0/w_125_65# CMOSP w=8 l=2
+  ad=0 pd=0 as=0 ps=0
M1205 adder_sub_0/enable_0/a_263_68# m1_n97_n30# vdd adder_sub_0/enable_0/w_249_62# CMOSP w=8 l=2